# Diagnostic Package Choices
#-----------------
# for each output-stream:
#  filename(n) : prefix of the output file name (only 8.c long) for outp.stream n
#  frequency(n):< 0 : write snap-shot output every |frequency| seconds
#               > 0 : write time-average output every frequency seconds
#  timePhase(n)     : write at time = timePhase + multiple of |frequency|
#  averagingFreq(n) : frequency (in s) for periodic averaging interval
#  averagingPhase(n): phase     (in s) for periodic averaging interval
#  repeatCycle(n)   : number of averaging intervals in 1 cycle
#  levels(:,n) : list of levels to write to file (Notes: declared as REAL)
#                 when this entry is missing, select all common levels of this list
#  fields(:,n) : list of diagnostics fields (8.c) (see "available_diagnostics.log"
#                 file for the list of all available diag. in this particular config)
#-----------------
 &DIAGNOSTICS_LIST

# PHYSICAL MODEL

# diag_mnc     = .FALSE.,
# dumpAtLast   = .TRUE.,
  fields(1,1) = 'ETAN    ','oceTAUX ','oceTAUY ',
                'oceQnet ','SHIfwFlx','MXLDEPTH', 
  filename(1) = 'surfDiag',
  frequency(1) = 2635200.,
  fields(1,2) = 'UVEL    ','VVEL    ','WVEL    ',
                'THETA   ','SALT    ','RHOAnoma',
# do not specify levels => all levels are selected
  filename(2) = 'dynDiag',
  frequency(2) =  2635200.,

# seaice area and thickness
#  fields(1,3) = 'SIarea','SIheff',
#  filename(3) = 'seaIceDiag',
# average every month
#  frequency(3) = 2592000.,

#_________________________________

# BIOGEOCHEM, SEA ICE & TRACERS

# plankton growth, productivity and community structure
fields(1,3) = 'BLGNPP','BLGNCP','BLGPSM','BLGPLG','BLGMU','BLGCHL',
filename(3) = 'planktonDiag',
# average every 5 days (to compare with satellite data), starting after 2.5 year spin up
frequency(3) = 439200.,
timePhase(3) = 79056000.,

# concentrations for 9 BLING plus 3 custom tracers. 10 is local iron; 11 is total meltwater; 12 is local meltwater;
fields(1,4) = 'TRAC01','TRAC02','TRAC03','TRAC04','TRAC05','TRAC06','TRAC07','TRAC08','TRAC09','TRAC10','TRAC11','TRAC12',
filename(4) = 'tracerDiag',
# average monthly (to compare with B-SOSE outputs), starting after 1.5 year spin up of physical model only
frequency(4) = 2635200.,
timePhase(4) = 47433600.,

# fluxes for nitrate and phosphate (macronutrient) tracers, and two iron tracers
fields(1,5) = 'UTRAC04','VTRAC04','WTRAC04','UTRAC05','VTRAC05','WTRAC05','UTRAC06','VTRAC06','WTRAC06','UTRAC10','VTRAC10','WTRAC10',
filename(5) = 'fluxDiag',
# average monthly, starting after 1.5 year spin up
frequency(5) = 2635200.,
timePhase(5) = 47436600.,

# limitation terms in growth equation for nitrate, phosphate, iron and light
fields(1,6) = 'BLGNLIM','BLGPLIM','BLGFELIM','BLGLLIM',
filename(6) = 'limDiag',
# average every 5 days, starting after 2.5 year spin up
frequency(6) = 439200.,
timePhase(6) = 79056000.,

# photosynthesis and light availability
fields(1,7) = 'BLGC2CHL','BLGPCM','BLGIRRK','BLGIRRIS','BLGIMEM','BLGIEFF',
filename(7) = 'lightDiag',
# average every 5 days, starting after 2.5 year spin up. Compare to Galbraith (2010) and Park et al. (2017)
frequency(7) = 439200., 
timePhase(7) = 79056000.,

fields(1,8) = 'BLGMLD','BLGQSW','SIarea','SIheff',
filename(8) = 'lightDiagSurf',
frequency(8) = 439200.,
timePhase(8) = 79056000.,

# full iron budget using suite of BLING sub-routines 
fields(1,9) = 'BLGFEUP','BLGFESPM','BLGFEREM','BLGFEREC','BLGFERD','BLGFEADI','BLGFEADO','BLGFESED','BLGBIOFE',
filename(9) = 'ironBudget',
# average monthly, starting after 1.5 year spin up of physical model only. Compare to St Laurent et al. (2019)
frequency(9) = 2635200.,
timePhase(9) = 47433600.,

fields(1,10) = 'BLGFEBUR',
filename(10) = 'ironBudgetSed',
frequency(10) = 2635200.,
timePhase(10) = 47433600.,

 &

# Parameter for Diagnostics of per level statistics:
#-----------------
# for each output-stream:
#  stat_fname(n) : prefix of the output file name (only 8.c long) for outp.stream n
#  stat_freq(n):< 0 : write snap-shot output every |stat_freq| seconds
#               > 0 : write time-average output every stat_freq seconds
#  stat_phase(n)    : write at time = stat_phase + multiple of |stat_freq|
#  stat_region(:,n) : list of "regions" (default: 1 region only=global)
#  stat_fields(:,n) : list of diagnostics fields (8.c) (see "available_diagnostics.log"
#                 file for the list of all available diag. in this particular config)
#-----------------
 &DIAG_STATIS_PARMS
#- regional mask: 3 lat. band: 1 : y <= -24 ; 2 : -24<y<24 ; 3 : 24 <= y
# diagSt_regMaskFile='regMask_lat24.bin',
# nSetRegMskFile=1,
# set_regMask(1)= 1,  1,  1,
# val_regMask(1)= 1., 2., 3.,
#---
#stat_fields(1,1)= 'ETAN    ','UVEL    ','VVEL    ','WVEL    ',
#                  'THETA   ','SALT    ','SIarea  ','SIheff  ',
#   stat_fname(1)= 'dynStDiag',
#    stat_freq(1)= 864000.,
 &

